test_data/ep/opendss/34Bus/debug/ieee34-2_Curr_Elem.Txt

CIRCUIT ELEMENT CURRENTS

(Currents into element from indicated bus)

Power Delivery Elements

  Bus     Phase    Magnitude, A     Angle      (Real)   +j  (Imag)

ELEMENT = "Vsource.SOURCE"
SOURCEBUS     1           9.4682 /_  -73.9 =     2.6284 +j   -9.0961
SOURCEBUS     2           8.7232 /_  167.5 =    -8.5154 +j    1.8926
SOURCEBUS     3            9.303 /_   50.7 =      5.887 +j    7.2034
------------
SOURCEBUS     0           9.4682 /_  106.1 =    -2.6284 +j    9.0961
SOURCEBUS     0           8.7232 /_  -12.5 =     8.5154 +j   -1.8926
SOURCEBUS     0            9.303 /_ -129.3 =     -5.887 +j   -7.2034

ELEMENT = "Transformer.SUBXF"
SOURCEBUS     1           9.4682 /_  106.1 =    -2.6284 +j    9.0961
SOURCEBUS     2           8.7232 /_  -12.5 =     8.5154 +j   -1.8926
SOURCEBUS     3            9.303 /_ -129.3 =     -5.887 +j   -7.2034
SOURCEBUS     0                0 /_    0.0 =          0 +j         0
SOURCEBUS Resid      1.0413E-009 /_   26.6 =   9.3132E-010 +j 4.6566E-010
------------
800           1           27.671 /_ -101.5 =    -5.5342 +j   -27.112
800           2            24.56 /_  137.6 =     -18.15 +j    16.546
800           3           23.915 /_   18.2 =     22.721 +j    7.4621
800           0           3.2493 /_   72.8 =    0.96241 +j    3.1035
800       Resid      5.2684E-009 /_  135.0 =   -3.7253E-009 +j 3.7253E-009

ELEMENT = "Line.L1"
800           1           27.671 /_   78.5 =     5.5342 +j    27.112
800           2            24.56 /_  -42.4 =      18.15 +j   -16.546
800           3           23.915 /_ -161.8 =    -22.721 +j   -7.4621
800       Resid           3.2493 /_ -107.2 =    -0.96241 +j   -3.1035
------------
802           1           27.624 /_ -101.6 =    -5.5376 +j   -27.063
802           2           24.514 /_  137.6 =    -18.113 +j    16.518
802           3           23.875 /_   18.2 =     22.686 +j    7.4391
802       Resid            3.252 /_   72.7 =      0.9645 +j    3.1057

ELEMENT = "Line.L2A"
802           1           27.624 /_   78.4 =     5.5376 +j    27.063
802           2           24.514 /_  -42.4 =     18.113 +j   -16.518
802           3           23.875 /_ -161.8 =    -22.686 +j   -7.4391
802       Resid            3.252 /_ -107.3 =     -0.9645 +j   -3.1057
------------
MID806        1           27.608 /_ -101.6 =    -5.5388 +j   -27.047
MID806        2           24.499 /_  137.6 =    -18.101 +j    16.509
MID806        3           23.861 /_   18.1 =     22.674 +j    7.4314
MID806    Resid           3.2529 /_   72.7 =      0.9652 +j    3.1064

ELEMENT = "Line.L2B"
MID806        1           27.608 /_   78.4 =     5.5388 +j    27.047
MID806        2           24.499 /_  -42.4 =     18.101 +j   -16.509
MID806        3           23.861 /_ -161.9 =    -22.674 +j   -7.4314
MID806    Resid           3.2529 /_ -107.3 =     -0.9652 +j   -3.1064
------------
806           1           27.592 /_ -101.6 =    -5.5399 +j    -27.03
806           2           24.483 /_  137.6 =    -18.089 +j      16.5
806           3           23.847 /_   18.1 =     22.663 +j    7.4236
806       Resid           3.2538 /_   72.7 =      0.9659 +j    3.1072

ELEMENT = "Line.L3"
806           1           27.592 /_   78.4 =     5.5399 +j     27.03
806           2           24.483 /_  -42.4 =     18.089 +j     -16.5
806           3           23.847 /_ -161.9 =    -22.663 +j   -7.4236
806       Resid           3.2538 /_ -107.3 =     -0.9659 +j   -3.1072
------------
808           1           27.002 /_ -101.9 =    -5.5774 +j    -26.42
808           2            23.91 /_  137.5 =    -17.633 +j    16.148
808           3           23.337 /_   17.8 =     22.219 +j    7.1379
808       Resid           3.2873 /_   72.4 =     0.99161 +j    3.1342

ELEMENT = "Line.L4A"
808           2         0.070587 /_  -30.7 =   0.060701 +j -0.036026
------------
MID810        2         0.035294 /_  149.3 =  -0.030351 +j  0.018013

ELEMENT = "Line.L4B"
MID810        2         0.035294 /_  -30.7 =   0.030351 +j -0.018013
------------
810           2      9.0949E-013 /_  180.0 =  -9.0949E-013 +j         0

ELEMENT = "Line.L5"
808           1           27.002 /_   78.1 =     5.5774 +j     26.42
808           2           23.841 /_  -42.5 =     17.572 +j   -16.112
808           3           23.337 /_ -162.2 =    -22.219 +j   -7.1379
808       Resid            3.304 /_ -106.4 =    -0.93091 +j   -3.1702
------------
812           1            26.31 /_ -102.3 =    -5.6106 +j   -25.704
812           2           23.169 /_  137.4 =    -17.045 +j    15.693
812           3           22.739 /_   17.4 =     21.695 +j    6.8105
812       Resid           3.3413 /_   73.3 =     0.96004 +j    3.2004

ELEMENT = "Line.L6"
812           1            26.31 /_   77.7 =     5.6106 +j    25.704
812           2           23.169 /_  -42.6 =     17.045 +j   -15.693
812           3           22.739 /_ -162.6 =    -21.695 +j   -6.8105
812       Resid           3.3413 /_ -106.7 =    -0.96004 +j   -3.2004
------------
814           1           25.756 /_ -102.6 =     -5.629 +j   -25.133
814           2           22.633 /_  137.3 =    -16.628 +j    15.355
814           3           22.261 /_   17.1 =     21.274 +j    6.5546
814       Resid           3.3698 /_   73.0 =     0.98253 +j    3.2234

ELEMENT = "Line.L7"
814R          1           23.959 /_   77.4 =     5.2363 +j     23.38
814R          2           21.947 /_  -42.7 =     16.124 +j    -14.89
814R          3           21.586 /_ -162.9 =    -20.629 +j   -6.3559
814R      Resid           2.2555 /_ -108.9 =    -0.73061 +j   -2.1339
------------
850           1           23.959 /_ -102.6 =    -5.2363 +j    -23.38
850           2           21.947 /_  137.3 =    -16.124 +j     14.89
850           3           21.586 /_   17.1 =     20.629 +j    6.3559
850       Resid           2.2555 /_   71.1 =     0.73062 +j    2.1339

ELEMENT = "Line.L24"
850           1           23.959 /_   77.4 =     5.2363 +j     23.38
850           2           21.947 /_  -42.7 =     16.124 +j    -14.89
850           3           21.586 /_ -162.9 =    -20.629 +j   -6.3559
850       Resid           2.2555 /_ -108.9 =    -0.73062 +j   -2.1339
------------
816           1           23.953 /_ -102.6 =    -5.2365 +j   -23.374
816           2           21.942 /_  137.3 =    -16.119 +j    14.886
816           3           21.581 /_   17.1 =     20.625 +j    6.3532
816       Resid           2.2557 /_   71.1 =     0.73083 +j     2.134

ELEMENT = "Line.L8"
816           1          0.84392 /_   87.3 =   0.039928 +j   0.84297
------------
818           1          0.82123 /_  -92.7 =  -0.038866 +j  -0.82031

ELEMENT = "Line.L9A"
816           1           23.122 /_   77.0 =     5.1965 +j    22.531
816           2           21.942 /_  -42.7 =     16.119 +j   -14.886
816           3           21.581 /_ -162.9 =    -20.625 +j   -6.3532
816       Resid           1.4643 /_ -118.2 =    -0.69091 +j    -1.291
------------
MID824        1           23.025 /_ -103.0 =    -5.1985 +j    -22.43
MID824        2            21.85 /_  137.3 =    -16.048 +j    14.828
MID824        3           21.499 /_   17.1 =     20.553 +j    6.3095
MID824    Resid           1.4677 /_   61.8 =     0.69448 +j     1.293

ELEMENT = "Line.L9B"
MID824        1           23.025 /_   77.0 =     5.1985 +j     22.43
MID824        2            21.85 /_  -42.7 =     16.048 +j   -14.828
MID824        3           21.499 /_ -162.9 =    -20.553 +j   -6.3095
MID824    Resid           1.4677 /_ -118.2 =    -0.69448 +j    -1.293
------------
824           1           22.927 /_ -103.1 =    -5.2003 +j    -22.33
824           2           21.758 /_  137.3 =    -15.978 +j    14.769
824           3           21.417 /_   17.0 =      20.48 +j    6.2659
824       Resid           1.4711 /_   61.7 =     0.69805 +j     1.295

ELEMENT = "Line.L10A"
818           1          0.82123 /_   87.3 =   0.038866 +j   0.82031
------------
MID820        1          0.50182 /_  -92.7 =  -0.023836 +j  -0.50126

ELEMENT = "Line.L10B"
MID820        1          0.50182 /_   87.3 =   0.023836 +j   0.50126
------------
820           1          0.18235 /_  -92.7 =  -0.0086794 +j  -0.18214

ELEMENT = "Line.L11A"
820           1          0.18235 /_   87.3 =  0.0086794 +j   0.18214
------------
MID822        1         0.091173 /_  -92.7 =  -0.0043406 +j  -0.09107

ELEMENT = "Line.L11B"
MID822        1         0.091173 /_   87.3 =  0.0043406 +j   0.09107
------------
822           1      4.5475E-013 /_   90.0 =          0 +j 4.5475E-013

ELEMENT = "Line.L12A"
824           2         0.038528 /_  -32.1 =   0.032624 +j -0.020497
------------
MID826        2         0.019264 /_  147.9 =  -0.016312 +j  0.010248

ELEMENT = "Line.L12B"
MID826        2         0.019264 /_  -32.1 =   0.016312 +j -0.010248
------------
826           2      2.5724E-012 /_   45.0 =  1.819E-012 +j 1.819E-012

ELEMENT = "Line.L13A"
824           1           22.927 /_   76.9 =     5.2003 +j     22.33
824           2            21.72 /_  -42.8 =     15.945 +j   -14.748
824           3           21.417 /_ -163.0 =     -20.48 +j   -6.2659
824       Resid           1.4742 /_ -116.8 =    -0.66542 +j   -1.3155
------------
MID828        1           22.919 /_ -103.1 =    -5.2004 +j   -22.322
MID828        2           21.713 /_  137.2 =    -15.939 +j    14.744
MID828        3            21.41 /_   17.0 =     20.474 +j    6.2623
MID828    Resid           1.4745 /_   63.2 =     0.66572 +j    1.3156

ELEMENT = "Line.L13B"
MID828        1           22.919 /_   76.9 =     5.2004 +j    22.322
MID828        2           21.713 /_  -42.8 =     15.939 +j   -14.744
MID828        3            21.41 /_ -163.0 =    -20.474 +j   -6.2623
MID828    Resid           1.4745 /_ -116.8 =    -0.66572 +j   -1.3156
------------
828           1           22.911 /_ -103.1 =    -5.2006 +j   -22.313
828           2           21.705 /_  137.2 =    -15.933 +j    14.739
828           3           21.404 /_   17.0 =     20.468 +j    6.2588
828       Resid           1.4747 /_   63.2 =     0.66601 +j    1.3158

ELEMENT = "Line.L14A"
828           1           22.911 /_   76.9 =     5.2006 +j    22.313
828           2           21.705 /_  -42.8 =     15.933 +j   -14.739
828           3           21.404 /_ -163.0 =    -20.468 +j   -6.2588
828       Resid           1.4747 /_ -116.8 =    -0.66601 +j   -1.3158
------------
MID830        1           22.716 /_ -103.2 =    -5.2033 +j   -22.112
MID830        2           21.521 /_  137.2 =    -15.792 +j     14.62
MID830        3           21.239 /_   16.9 =     20.322 +j     6.172
MID830    Resid           1.4814 /_   63.0 =     0.67313 +j    1.3197

ELEMENT = "Line.L14B"
MID830        1           22.716 /_   76.8 =     5.2033 +j    22.112
MID830        2           21.521 /_  -42.8 =     15.792 +j    -14.62
MID830        3           21.239 /_ -163.1 =    -20.322 +j    -6.172
MID830    Resid           1.4814 /_ -117.0 =    -0.67313 +j   -1.3197
------------
830           1            22.52 /_ -103.4 =     -5.205 +j    -21.91
830           2           21.336 /_  137.2 =    -15.651 +j    14.501
830           3           21.074 /_   16.8 =     20.176 +j    6.0859
830       Resid            1.488 /_   62.8 =     0.68023 +j    1.3235

ELEMENT = "Line.L15"
830           1            22.52 /_   76.6 =      5.205 +j     21.91
830           2           21.336 /_  -42.8 =     15.651 +j   -14.501
830           3           21.074 /_ -163.2 =    -20.176 +j   -6.0859
830       Resid            1.488 /_ -117.2 =    -0.68023 +j   -1.3235
------------
854           1            22.51 /_ -103.4 =    -5.2051 +j     -21.9
854           2           21.327 /_  137.2 =    -15.644 +j    14.495
854           3           21.065 /_   16.8 =     20.168 +j    6.0815
854       Resid           1.4884 /_   62.8 =     0.68059 +j    1.3237

ELEMENT = "Line.L16A"
832           1           20.157 /_   76.2 =      4.812 +j    19.574
832           2           19.051 /_  -43.0 =     13.926 +j       -13
832           3           19.034 /_ -163.6 =    -18.261 +j   -5.3703
832       Resid           1.2947 /_ -111.6 =    -0.47696 +j   -1.2036
------------
MID858        1           20.106 /_ -103.8 =    -4.8114 +j   -19.522
MID858        2           19.003 /_  137.0 =     -13.89 +j    12.969
MID858        3           18.991 /_   16.4 =     18.222 +j    5.3486
MID858    Resid            1.296 /_   68.3 =     0.47886 +j    1.2043

ELEMENT = "Line.L16B"
MID858        1           20.106 /_   76.2 =     4.8114 +j    19.522
MID858        2           19.003 /_  -43.0 =      13.89 +j   -12.969
MID858        3           18.991 /_ -163.6 =    -18.222 +j   -5.3486
MID858    Resid            1.296 /_ -111.7 =    -0.47886 +j   -1.2043
------------
858           1           20.055 /_ -103.9 =    -4.8106 +j   -19.469
858           2           18.955 /_  137.0 =    -13.854 +j    12.937
858           3           18.948 /_   16.3 =     18.184 +j     5.327
858       Resid           1.2974 /_   68.2 =     0.48077 +j     1.205

ELEMENT = "Line.L29A"
858           1           20.031 /_   76.1 =     4.8087 +j    19.446
858           2           18.955 /_  -43.0 =     13.854 +j   -12.937
858           3           18.948 /_ -163.7 =    -18.184 +j    -5.327
858       Resid            1.275 /_ -112.1 =    -0.47884 +j   -1.1816
------------
MID834        1           19.971 /_ -103.9 =    -4.8078 +j   -19.383
MID834        2           18.899 /_  137.0 =    -13.812 +j    12.899
MID834        3           18.897 /_   16.3 =     18.138 +j    5.3014
MID834    Resid           1.2766 /_   67.9 =     0.48111 +j    1.1825

ELEMENT = "Line.L29B"
MID834        1           19.971 /_   76.1 =     4.8078 +j    19.383
MID834        2           18.899 /_  -43.0 =     13.812 +j   -12.899
MID834        3           18.897 /_ -163.7 =    -18.138 +j   -5.3014
MID834    Resid           1.2766 /_ -112.1 =    -0.48111 +j   -1.1825
------------
834           1            19.91 /_ -104.0 =    -4.8067 +j   -19.321
834           2           18.842 /_  137.0 =    -13.769 +j    12.862
834           3           18.846 /_   16.3 =     18.092 +j    5.2758
834       Resid           1.2782 /_   67.8 =     0.48337 +j    1.1833

ELEMENT = "Line.L18"
834           1           20.864 /_   80.8 =     3.3275 +j    20.597
834           2           19.675 /_  -38.2 =     15.464 +j   -12.165
834           3           19.758 /_ -158.9 =    -18.436 +j   -7.1061
834       Resid           1.3726 /_ -105.0 =    -0.35517 +j   -1.3258
------------
842           1           20.858 /_  -99.2 =    -3.3274 +j   -20.591
842           2            19.67 /_  141.8 =     -15.46 +j    12.162
842           3           19.753 /_   21.1 =     18.432 +j    7.1036
842       Resid           1.3727 /_   75.0 =     0.35538 +j    1.3259

ELEMENT = "Line.L19A"
836           1         0.018423 /_   89.0 =  0.00030939 +j   0.01842
836           2         0.016751 /_  -41.6 =   0.012536 +j -0.011111
836           3         0.015478 /_ -150.8 =  -0.013512 +j -0.0075491
836       Resid       0.00070893 /_   19.8 =   0.00066706 +j 0.00024003
------------
MID840        1        0.0092114 /_  -91.0 =  -0.00015469 +j -0.0092101
MID840        2        0.0083757 /_  138.4 =  -0.006268 +j 0.0055556
MID840        3        0.0077391 /_   29.2 =  0.0067562 +j 0.0037745
MID840    Resid       0.00035446 /_ -160.2 =   -0.00033353 +j -0.00012001

ELEMENT = "Line.L19B"
MID840        1        0.0092114 /_   89.0 =  0.00015469 +j 0.0092101
MID840        2        0.0083757 /_  -41.6 =   0.006268 +j -0.0055556
MID840        3        0.0077391 /_ -150.8 =  -0.0067562 +j -0.0037745
MID840    Resid       0.00035446 /_   19.8 =   0.00033353 +j 0.00012001
------------
840           1      2.1998E-011 /_ -150.3 =  -1.9099E-011 +j -1.0914E-011
840           2      3.0274E-011 /_   57.3 =  1.6371E-011 +j 2.5466E-011
840           3       7.276E-012 /_  180.0 =  -7.276E-012 +j         0
840       Resid      1.7659E-011 /_  -55.5 =   1.0004E-011 +j -1.4552E-011

ELEMENT = "Line.L21A"
842           1           20.858 /_   80.8 =     3.3274 +j    20.591
842           2            19.67 /_  -38.2 =      15.46 +j   -12.162
842           3           19.753 /_ -158.9 =    -18.432 +j   -7.1036
842       Resid           1.3727 /_ -105.0 =    -0.35538 +j   -1.3259
------------
MID844        1           20.844 /_  -99.2 =    -3.3271 +j   -20.577
MID844        2           19.657 /_  141.8 =     -15.45 +j    12.153
MID844        3           19.741 /_   21.1 =     18.421 +j    7.0977
MID844    Resid            1.373 /_   75.0 =     0.35591 +j    1.3261

ELEMENT = "Line.L21B"
MID844        1           20.844 /_   80.8 =     3.3271 +j    20.577
MID844        2           19.657 /_  -38.2 =      15.45 +j   -12.153
MID844        3           19.741 /_ -158.9 =    -18.421 +j   -7.0977
MID844    Resid            1.373 /_ -105.0 =    -0.35591 +j   -1.3261
------------
844           1            20.83 /_  -99.2 =    -3.3269 +j   -20.562
844           2           19.644 /_  141.8 =     -15.44 +j    12.144
844           3           19.729 /_   21.1 =      18.41 +j    7.0918
844       Resid           1.3733 /_   75.0 =     0.35643 +j    1.3263

ELEMENT = "Line.L22A"
844           1           12.105 /_   77.7 =     2.5823 +j    11.826
844           2           11.388 /_  -41.4 =     8.5416 +j   -7.5311
844           3           11.458 /_ -162.2 =    -10.911 +j   -3.4994
844       Resid          0.82392 /_ -105.0 =     -0.2134 +j   -0.7958
------------
MID846        1           12.067 /_ -102.4 =    -2.5816 +j   -11.787
MID846        2           11.352 /_  138.6 =    -8.5151 +j    7.5075
MID846        3           11.426 /_   17.8 =     10.882 +j    3.4834
MID846    Resid          0.82477 /_   74.9 =     0.21481 +j   0.79631

ELEMENT = "Line.L22B"
MID846        1           12.067 /_   77.6 =     2.5816 +j    11.787
MID846        2           11.352 /_  -41.4 =     8.5151 +j   -7.5075
MID846        3           11.426 /_ -162.2 =    -10.882 +j   -3.4834
MID846    Resid          0.82477 /_ -105.1 =    -0.21481 +j  -0.79631
------------
846           1           12.028 /_ -102.4 =    -2.5809 +j   -11.748
846           2           11.317 /_  138.6 =    -8.4886 +j     7.484
846           3           11.394 /_   17.7 =     10.853 +j    3.4675
846       Resid          0.82563 /_   74.8 =     0.21622 +j   0.79681

ELEMENT = "Line.L23A"
846           1           12.028 /_   77.6 =     2.5809 +j    11.748
846           2           11.317 /_  -41.4 =     8.4886 +j    -7.484
846           3           11.394 /_ -162.3 =    -10.853 +j   -3.4675
846       Resid          0.82563 /_ -105.2 =    -0.21622 +j  -0.79681
------------
MID848        1           12.023 /_ -102.4 =    -2.5808 +j   -11.743
MID848        2           11.311 /_  138.6 =    -8.4847 +j    7.4805
MID848        3           11.389 /_   17.7 =     10.849 +j    3.4652
MID848    Resid          0.82575 /_   74.8 =     0.21643 +j   0.79689

ELEMENT = "Line.L23B"
MID848        1           12.023 /_   77.6 =     2.5808 +j    11.743
MID848        2           11.311 /_  -41.4 =     8.4847 +j   -7.4805
MID848        3           11.389 /_ -162.3 =    -10.849 +j   -3.4652
MID848    Resid          0.82575 /_ -105.2 =    -0.21643 +j  -0.79689
------------
848           1           12.017 /_ -102.4 =    -2.5807 +j   -11.737
848           2           11.306 /_  138.6 =    -8.4809 +j    7.4771
848           3           11.384 /_   17.7 =     10.845 +j    3.4628
848       Resid          0.82588 /_   74.8 =     0.21663 +j   0.79696

ELEMENT = "Line.L26A"
854           2           0.2976 /_  -32.7 =     0.2505 +j  -0.16067
------------
MID856        2           0.1488 /_  147.3 =   -0.12525 +j  0.080339

ELEMENT = "Line.L26B"
MID856        2           0.1488 /_  -32.7 =    0.12525 +j -0.080339
------------
856           2      3.2155E-013 /_ -135.0 =  -2.2737E-013 +j -2.2737E-013

ELEMENT = "Line.L27"
854           1            22.51 /_   76.6 =     5.2051 +j      21.9
854           2           21.034 /_  -43.0 =     15.393 +j   -14.334
854           3           21.065 /_ -163.2 =    -20.168 +j   -6.0815
854       Resid           1.5454 /_ -106.2 =    -0.43009 +j   -1.4843
------------
852           1           21.802 /_ -103.8 =    -5.2031 +j   -21.172
852           2           20.367 /_  137.0 =    -14.888 +j    13.898
852           3           20.468 /_   16.4 =     19.636 +j     5.776
852       Resid           1.5652 /_   73.1 =     0.45547 +j    1.4975

ELEMENT = "Line.L25"
852R          1           20.163 /_   76.2 =     4.8121 +j    19.581
852R          2           19.057 /_  -43.0 =      13.93 +j   -13.004
852R          3            19.04 /_ -163.6 =    -18.266 +j   -5.3731
852R      Resid           1.2945 /_ -111.6 =    -0.47671 +j   -1.2035
------------
832           1           20.163 /_ -103.8 =    -4.8121 +j   -19.581
832           2           19.057 /_  137.0 =     -13.93 +j    13.004
832           3           19.039 /_   16.4 =     18.266 +j     5.373
832       Resid           1.2945 /_   68.4 =     0.47671 +j    1.2035

ELEMENT = "Transformer.XFM1"
832           1        0.0065812 /_   89.4 =  6.7023E-005 +j 0.0065809
832           2        0.0059703 /_  -41.6 =  0.0044626 +j -0.0039661
832           3        0.0054918 /_ -150.4 =  -0.0047765 +j -0.0027102
832           0       0.00026448 /_   21.1 =  0.00024682 +j 9.5044E-005
832       Resid      4.5351E-007 /_   75.5 =   1.1346E-007 +j 4.3909E-007
------------
888           1         0.039479 /_  -90.6 =  -0.00040816 +j -0.039477
888           2         0.035818 /_  138.4 =   -0.02678 +j  0.023785
888           3         0.032955 /_   29.6 =   0.028665 +j  0.016258
888           0        0.0015831 /_ -158.9 =  -0.0014773 +j -0.00056889
888       Resid      2.7145E-006 /_   75.5 =   6.7906E-007 +j 2.6282E-006

ELEMENT = "Line.L28A"
858           1         0.023468 /_   85.3 =  0.0019238 +j  0.023389
------------
MID864        1         0.011734 /_  -94.7 =  -0.00096189 +j -0.011694

ELEMENT = "Line.L28B"
MID864        1         0.011734 /_   85.3 =  0.00096189 +j  0.011694
------------
864           1      5.1449E-012 /_ -135.0 =  -3.638E-012 +j -3.638E-012

ELEMENT = "Line.L17A"
834           1           1.9538 /_  -40.8 =     1.4793 +j   -1.2763
834           2           1.8322 /_ -157.7 =    -1.6947 +j  -0.69647
834           3           1.8623 /_   79.4 =     0.3436 +j    1.8303
834       Resid          0.19171 /_  132.0 =     -0.1282 +j   0.14254
------------
MID860        1           1.9677 /_  138.7 =    -1.4789 +j     1.298
MID860        2           1.8409 /_   21.8 =     1.7094 +j   0.68342
MID860        3           1.8739 /_ -101.1 =   -0.35947 +j   -1.8391
MID860    Resid          0.19203 /_  -47.8 =     0.12899 +j  -0.14225

ELEMENT = "Line.L17B"
MID860        1           1.9677 /_  -41.3 =     1.4789 +j    -1.298
MID860        2           1.8409 /_ -158.2 =    -1.7094 +j  -0.68342
MID860        3           1.8739 /_   78.9 =    0.35947 +j    1.8391
MID860    Resid          0.19203 /_  132.2 =    -0.12899 +j   0.14225
------------
860           1           1.9818 /_  138.3 =    -1.4785 +j    1.3196
860           2           1.8499 /_   21.2 =     1.7241 +j   0.67037
860           3           1.8857 /_ -101.5 =   -0.37534 +j    -1.848
860       Resid          0.19234 /_  -47.6 =     0.12977 +j  -0.14197

ELEMENT = "Line.L30A"
860           1         0.081832 /_   89.0 =  0.0013742 +j   0.08182
860           2          0.14294 /_  -37.8 =    0.11295 +j -0.087604
860           3         0.068752 /_ -150.8 =   -0.06002 +j -0.033532
860       Resid         0.067041 /_  144.1 =   -0.054303 +j  0.039316
------------
MID836        1         0.053126 /_  -91.0 =  -0.00089217 +j -0.053119
MID836        2          0.11691 /_  143.0 =  -0.093416 +j  0.070291
MID836        3         0.044635 /_   29.2 =   0.038966 +j  0.021769
MID836    Resid          0.06767 /_  -35.1 =    0.055342 +j -0.038942

ELEMENT = "Line.L30B"
MID836        1         0.053126 /_   89.0 =  0.00089217 +j  0.053119
MID836        2          0.11691 /_  -37.0 =   0.093416 +j -0.070291
MID836        3         0.044635 /_ -150.8 =  -0.038966 +j -0.021769
MID836    Resid          0.06767 /_  144.9 =   -0.055342 +j  0.038942
------------
836           1         0.024421 /_  -91.0 =  -0.00041012 +j -0.024418
836           2         0.090915 /_  144.4 =  -0.073883 +j  0.052979
836           3         0.020518 /_   29.2 =   0.017912 +j  0.010007
836       Resid         0.068311 /_  -34.4 =    0.056382 +j -0.038568

ELEMENT = "Line.L20"
836           1        0.0059982 /_   89.0 =  0.00010073 +j 0.0059973
836           2         0.074272 /_  -34.3 =   0.061347 +j -0.041867
836           3        0.0050394 /_ -150.8 =  -0.0043994 +j -0.0024578
836       Resid         0.068728 /_  146.1 =   -0.057049 +j  0.038328
------------
862           1      2.5531E-011 /_   94.1 =  -1.819E-012 +j 2.5466E-011
862           2         0.068865 /_  146.3 =  -0.057266 +j   0.03825
862           3       2.933E-011 /_   82.9 =  3.638E-012 +j 2.9104E-011
862       Resid         0.068865 /_  -33.7 =    0.057266 +j  -0.03825

ELEMENT = "Line.L31A"
862           2         0.068865 /_  -33.7 =   0.057266 +j  -0.03825
------------
MID838        2         0.034433 /_  146.3 =  -0.028633 +j  0.019125

ELEMENT = "Line.L31B"
MID838        2         0.034433 /_  -33.7 =   0.028633 +j -0.019125
------------
838           2      2.0337E-012 /_   26.6 =  1.819E-012 +j 9.0949E-013

ELEMENT = "Line.L32"
888           1         0.039479 /_   89.4 =  0.00040816 +j  0.039477
888           2         0.035818 /_  -41.6 =    0.02678 +j -0.023785
888           3         0.032955 /_ -150.4 =  -0.028665 +j -0.016258
888       Resid        0.0015815 /_   21.0 =   0.0014767 +j 0.00056626
------------
890           1      2.8563E-013 /_  -84.3 =  2.8422E-014 +j -2.8422E-013
890           2      2.9296E-014 /_  -76.0 =  7.1054E-015 +j -2.8422E-014
890           3      1.1369E-013 /_    0.0 =  1.1369E-013 +j         0
890       Resid      3.4642E-013 /_  115.5 =   -1.4921E-013 +j 3.1264E-013

ELEMENT = "Capacitor.C844"
844           1           8.7678 /_   85.1 =    0.74454 +j    8.7361
844           2           8.2988 /_  -33.8 =     6.8984 +j   -4.6133
844           3           8.3159 /_ -154.4 =    -7.4999 +j   -3.5924
844       Resid           0.5494 /_ -105.1 =    -0.14303 +j  -0.53046
------------
844           0           8.7678 /_  -94.9 =   -0.74454 +j   -8.7361
844           0           8.2988 /_  146.2 =    -6.8984 +j    4.6133
844           0           8.3159 /_   25.6 =     7.4999 +j    3.5924
844       Resid           0.5494 /_   74.9 =     0.14303 +j   0.53046

ELEMENT = "Capacitor.C848"
848           1           13.156 /_   85.1 =       1.13 +j    13.107
848           2           12.452 /_  -33.8 =     10.345 +j    -6.931
848           3           12.478 /_ -154.5 =    -11.259 +j   -5.3793
848       Resid          0.82588 /_ -105.2 =    -0.21663 +j  -0.79696
------------
848           0           13.156 /_  -94.9 =      -1.13 +j   -13.107
848           0           12.452 /_  146.2 =    -10.345 +j     6.931
848           0           12.478 /_   25.5 =     11.259 +j    5.3793
848       Resid          0.82588 /_   74.8 =     0.21663 +j   0.79696

ELEMENT = "Transformer.REG1A"
814           1           25.756 /_   77.4 =      5.629 +j    25.133
814           0           25.756 /_ -102.6 =     -5.629 +j   -25.133
------------
814R          1           23.959 /_ -102.6 =    -5.2363 +j    -23.38
814R          0           23.959 /_   77.4 =     5.2363 +j     23.38

ELEMENT = "Transformer.REG1B"
814           2           22.633 /_  -42.7 =     16.628 +j   -15.355
814           0           22.633 /_  137.3 =    -16.628 +j    15.355
------------
814R          2           21.947 /_  137.3 =    -16.124 +j     14.89
814R          0           21.947 /_  -42.7 =     16.124 +j    -14.89

ELEMENT = "Transformer.REG1C"
814           3           22.261 /_ -162.9 =    -21.274 +j   -6.5546
814           0           22.261 /_   17.1 =     21.274 +j    6.5546
------------
814R          3           21.586 /_   17.1 =     20.629 +j    6.3559
814R          0           21.586 /_ -162.9 =    -20.629 +j   -6.3559

ELEMENT = "Transformer.REG2A"
852           1           21.802 /_   76.2 =     5.2031 +j    21.172
852           0           21.802 /_ -103.8 =    -5.2031 +j   -21.172
------------
852R          1           20.163 /_ -103.8 =    -4.8121 +j   -19.581
852R          0           20.163 /_   76.2 =     4.8121 +j    19.581

ELEMENT = "Transformer.REG2B"
852           2           20.367 /_  -43.0 =     14.888 +j   -13.898
852           0           20.367 /_  137.0 =    -14.888 +j    13.898
------------
852R          2           19.057 /_  137.0 =     -13.93 +j    13.004
852R          0           19.057 /_  -43.0 =      13.93 +j   -13.004

ELEMENT = "Transformer.REG2C"
852           3           20.468 /_ -163.6 =    -19.636 +j    -5.776
852           0           20.468 /_   16.4 =     19.636 +j     5.776
------------
852R          3            19.04 /_   16.4 =     18.266 +j    5.3731
852R          0            19.04 /_ -163.6 =    -18.266 +j   -5.3731

= = = = = = = = = = = = = = = = = = =  = = = = = = = = = = =  = =

Power Conversion Elements

  Bus     Phase    Magnitude, A     Angle      (Real)   +j  (Imag)

ELEMENT = "Load.S860"
860           1           2.0362 /_  -43.5 =     1.4772 +j   -1.4014
860           2           1.9273 /_ -162.4 =    -1.8371 +j  -0.58277
860           3           1.9313 /_   77.0 =    0.43536 +j    1.8815
860           0          0.12741 /_  126.3 =  -0.075465 +j   0.10265

ELEMENT = "Load.S848"
848           1           1.9956 /_  -43.4 =     1.4507 +j   -1.3703
848           2           1.9426 /_ -163.7 =    -1.8642 +j   -0.5461
848           3           1.9606 /_   77.8 =    0.41356 +j    1.9165

