test_data/ep/opendss/34Bus/debug/ieee34-2_Power_elem_kVA.txt

CIRCUIT ELEMENT POWER FLOW

(Power Flow into element from indicated Bus)

Power Delivery Elements

  Bus     Phase     kW     +j   kvar         kVA         PF

ELEMENT = "Vsource.SOURCE"
SOURCEBUS     1       -95.0 +j    384.5      396.0      -0.2399
SOURCEBUS     2       -79.2 +j    356.2      364.9      -0.2170
SOURCEBUS     3       -62.6 +j    384.1      389.1      -0.1609
   TERMINAL TOTAL .  -236.8 +j   1124.7     1149.4      -0.2060
SOURCEBUS     0         0.0 +j      0.0        0.0       1.0000
SOURCEBUS     0         0.0 +j      0.0        0.0       1.0000
SOURCEBUS     0         0.0 +j      0.0        0.0       1.0000
   TERMINAL TOTAL .     0.0 +j      0.0        0.0       1.0000

ELEMENT = "Transformer.SUBXF"
SOURCEBUS     1        95.0 +j   -384.5      396.0      -0.2399
SOURCEBUS     2        79.2 +j   -356.2      364.9      -0.2170
SOURCEBUS     3        62.6 +j   -384.1      389.1      -0.1609
SOURCEBUS     0         0.0 +j      0.0        0.0       1.0000
   TERMINAL TOTAL .   236.8 +j  -1124.7     1149.4      -0.2060
800           1       -83.5 +j    409.3      417.7      -0.2000
800           2       -79.3 +j    362.1      370.7      -0.2140
800           3       -73.9 +j    353.3      361.0      -0.2048
800           0         0.0 +j      0.0        0.0       1.0000
   TERMINAL TOTAL .  -236.8 +j   1124.7     1149.4      -0.2060

ELEMENT = "Line.L1"
800           1        83.5 +j   -409.3      417.7      -0.2000
800           2        79.3 +j   -362.1      370.7      -0.2140
800           3        73.9 +j   -353.3      361.0      -0.2048
   TERMINAL TOTAL .   236.8 +j  -1124.7     1149.4      -0.2060
802           1       -83.1 +j    408.8      417.2      -0.1993
802           2       -79.0 +j    361.7      370.2      -0.2133
802           3       -73.6 +j    352.9      360.5      -0.2043
   TERMINAL TOTAL .  -235.7 +j   1123.5     1147.9      -0.2054

ELEMENT = "Line.L2A"
802           1        83.1 +j   -408.8      417.2      -0.1993
802           2        79.0 +j   -361.7      370.2      -0.2133
802           3        73.6 +j   -352.9      360.5      -0.2043
   TERMINAL TOTAL .   235.7 +j  -1123.5     1147.9      -0.2054
MID806        1       -83.0 +j    408.7      417.0      -0.1990
MID806        2       -78.8 +j    361.6      370.0      -0.2130
MID806        3       -73.5 +j    352.8      360.4      -0.2041
   TERMINAL TOTAL .  -235.4 +j   1123.0     1147.4      -0.2051

ELEMENT = "Line.L2B"
MID806        1        83.0 +j   -408.7      417.0      -0.1990
MID806        2        78.8 +j   -361.6      370.0      -0.2130
MID806        3        73.5 +j   -352.8      360.4      -0.2041
   TERMINAL TOTAL .   235.4 +j  -1123.0     1147.4      -0.2051
806           1       -82.9 +j    408.6      416.9      -0.1988
806           2       -78.7 +j    361.4      369.9      -0.2128
806           3       -73.4 +j    352.7      360.2      -0.2039
   TERMINAL TOTAL .  -235.0 +j   1122.6     1147.0      -0.2049

ELEMENT = "Line.L3"
806           1        82.9 +j   -408.6      416.9      -0.1988
806           2        78.7 +j   -361.4      369.9      -0.2128
806           3        73.4 +j   -352.7      360.2      -0.2039
   TERMINAL TOTAL .   235.0 +j  -1122.6     1147.0      -0.2049
808           1       -78.0 +j    403.2      410.7      -0.1899
808           2       -74.3 +j    355.7      363.4      -0.2044
808           3       -69.8 +j    347.4      354.3      -0.1971
   TERMINAL TOTAL .  -222.1 +j   1106.3     1128.4      -0.1968

ELEMENT = "Line.L4A"
808           2         0.0 +j     -1.1        1.1      -0.0000
   TERMINAL TOTAL .     0.0 +j     -1.1        1.1      -0.0000
MID810        2        -0.0 +j      0.5        0.5      -0.0000
   TERMINAL TOTAL .    -0.0 +j      0.5        0.5      -0.0000

ELEMENT = "Line.L4B"
MID810        2         0.0 +j     -0.5        0.5      -0.0000
   TERMINAL TOTAL .     0.0 +j     -0.5        0.5      -0.0000
810           2         0.0 +j      0.0        0.0       0.5104
   TERMINAL TOTAL .     0.0 +j      0.0        0.0       0.5104

ELEMENT = "Line.L5"
808           1        78.0 +j   -403.2      410.7      -0.1899
808           2        74.3 +j   -354.7      362.3      -0.2050
808           3        69.8 +j   -347.4      354.3      -0.1971
   TERMINAL TOTAL .   222.1 +j  -1105.2     1127.3      -0.1970
812           1       -72.7 +j    396.6      403.2      -0.1802
812           2       -69.3 +j    347.7      354.6      -0.1955
812           3       -65.8 +j    341.0      347.3      -0.1896
   TERMINAL TOTAL .  -207.8 +j   1085.4     1105.1      -0.1880

ELEMENT = "Line.L6"
812           1        72.7 +j   -396.6      403.2      -0.1802
812           2        69.3 +j   -347.7      354.6      -0.1955
812           3        65.8 +j   -341.0      347.3      -0.1896
   TERMINAL TOTAL .   207.8 +j  -1085.4     1105.1      -0.1880
814           1       -68.7 +j    391.2      397.2      -0.1729
814           2       -65.5 +j    342.0      348.2      -0.1881
814           3       -62.8 +j    335.7      341.6      -0.1840
   TERMINAL TOTAL .  -197.0 +j   1068.9     1086.9      -0.1813

ELEMENT = "Line.L7"
814R          1        68.7 +j   -391.2      397.2      -0.1729
814R          2        65.5 +j   -342.0      348.2      -0.1881
814R          3        62.8 +j   -335.7      341.6      -0.1840
   TERMINAL TOTAL .   197.0 +j  -1068.9     1086.9      -0.1813
850           1       -68.6 +j    391.2      397.2      -0.1728
850           2       -65.5 +j    342.0      348.2      -0.1881
850           3       -62.8 +j    335.7      341.6      -0.1840
   TERMINAL TOTAL .  -197.0 +j   1068.9     1086.9      -0.1812

ELEMENT = "Line.L24"
850           1        68.6 +j   -391.2      397.2      -0.1728
850           2        65.5 +j   -342.0      348.2      -0.1881
850           3        62.8 +j   -335.7      341.6      -0.1840
   TERMINAL TOTAL .   197.0 +j  -1068.9     1086.9      -0.1812
816           1       -68.6 +j    391.1      397.1      -0.1728
816           2       -65.5 +j    341.9      348.2      -0.1880
816           3       -62.8 +j    335.7      341.5      -0.1839
   TERMINAL TOTAL .  -196.9 +j   1068.7     1086.7      -0.1811

ELEMENT = "Line.L8"
816           1         0.0 +j    -14.0       14.0      -0.0006
   TERMINAL TOTAL .     0.0 +j    -14.0       14.0      -0.0006
818           1        -0.0 +j     13.6       13.6      -0.0005
   TERMINAL TOTAL .    -0.0 +j     13.6       13.6      -0.0005

ELEMENT = "Line.L9A"
816           1        68.6 +j   -377.1      383.3      -0.1789
816           2        65.5 +j   -341.9      348.2      -0.1880
816           3        62.8 +j   -335.7      341.5      -0.1839
   TERMINAL TOTAL .   196.8 +j  -1054.7     1073.0      -0.1835
MID824        1       -67.8 +j    375.9      382.0      -0.1775
MID824        2       -64.6 +j    340.9      347.0      -0.1861
MID824        3       -62.1 +j    334.7      340.4      -0.1824
   TERMINAL TOTAL .  -194.4 +j   1051.5     1069.3      -0.1818

ELEMENT = "Line.L9B"
MID824        1        67.8 +j   -375.9      382.0      -0.1775
MID824        2        64.6 +j   -340.9      347.0      -0.1861
MID824        3        62.1 +j   -334.7      340.4      -0.1824
   TERMINAL TOTAL .   194.4 +j  -1051.5     1069.3      -0.1818
824           1       -67.0 +j    374.7      380.6      -0.1760
824           2       -63.7 +j    339.8      345.8      -0.1841
824           3       -61.4 +j    333.7      339.3      -0.1809
   TERMINAL TOTAL .  -192.0 +j   1048.2     1065.7      -0.1802

ELEMENT = "Line.L10A"
818           1         0.0 +j    -13.6       13.6      -0.0005
   TERMINAL TOTAL .     0.0 +j    -13.6       13.6      -0.0005
MID820        1        -0.0 +j      8.3        8.3      -0.0002
   TERMINAL TOTAL .    -0.0 +j      8.3        8.3      -0.0002

ELEMENT = "Line.L10B"
MID820        1         0.0 +j     -8.3        8.3      -0.0002
   TERMINAL TOTAL .     0.0 +j     -8.3        8.3      -0.0002
820           1        -0.0 +j      3.0        3.0      -0.0000
   TERMINAL TOTAL .    -0.0 +j      3.0        3.0      -0.0000

ELEMENT = "Line.L11A"
820           1         0.0 +j     -3.0        3.0      -0.0000
   TERMINAL TOTAL .     0.0 +j     -3.0        3.0      -0.0000
MID822        1        -0.0 +j      1.5        1.5      -0.0000
   TERMINAL TOTAL .    -0.0 +j      1.5        1.5      -0.0000

ELEMENT = "Line.L11B"
MID822        1         0.0 +j     -1.5        1.5      -0.0000
   TERMINAL TOTAL .     0.0 +j     -1.5        1.5      -0.0000
822           1        -0.0 +j     -0.0        0.0       0.0476
   TERMINAL TOTAL .    -0.0 +j     -0.0        0.0       0.0476

ELEMENT = "Line.L12A"
824           2         0.0 +j     -0.6        0.6      -0.0000
   TERMINAL TOTAL .     0.0 +j     -0.6        0.6      -0.0000
MID826        2        -0.0 +j      0.3        0.3      -0.0000
   TERMINAL TOTAL .    -0.0 +j      0.3        0.3      -0.0000

ELEMENT = "Line.L12B"
MID826        2         0.0 +j     -0.3        0.3      -0.0000
   TERMINAL TOTAL .     0.0 +j     -0.3        0.3      -0.0000
826           2        -0.0 +j     -0.0        0.0       0.9749
   TERMINAL TOTAL .    -0.0 +j     -0.0        0.0       0.9749

ELEMENT = "Line.L13A"
824           1        67.0 +j   -374.7      380.6      -0.1760
824           2        63.7 +j   -339.2      345.1      -0.1844
824           3        61.4 +j   -333.7      339.3      -0.1809
   TERMINAL TOTAL .   192.0 +j  -1047.6     1065.1      -0.1803
MID828        1       -66.9 +j    374.6      380.5      -0.1759
MID828        2       -63.6 +j    339.1      345.0      -0.1843
MID828        3       -61.3 +j    333.7      339.3      -0.1808
   TERMINAL TOTAL .  -191.8 +j   1047.4     1064.8      -0.1802

ELEMENT = "Line.L13B"
MID828        1        66.9 +j   -374.6      380.5      -0.1759
MID828        2        63.6 +j   -339.1      345.0      -0.1843
MID828        3        61.3 +j   -333.7      339.3      -0.1808
   TERMINAL TOTAL .   191.8 +j  -1047.4     1064.8      -0.1802
828           1       -66.9 +j    374.5      380.4      -0.1758
828           2       -63.5 +j    339.1      345.0      -0.1841
828           3       -61.3 +j    333.6      339.2      -0.1807
   TERMINAL TOTAL .  -191.6 +j   1047.1     1064.5      -0.1800

ELEMENT = "Line.L14A"
828           1        66.9 +j   -374.5      380.4      -0.1758
828           2        63.5 +j   -339.1      345.0      -0.1841
828           3        61.3 +j   -333.6      339.2      -0.1807
   TERMINAL TOTAL .   191.6 +j  -1047.1     1064.5      -0.1800
MID830        1       -65.3 +j    372.0      377.7      -0.1729
MID830        2       -61.7 +j    336.9      342.5      -0.1802
MID830        3       -59.9 +j    331.6      337.0      -0.1778
   TERMINAL TOTAL .  -186.9 +j   1040.5     1057.2      -0.1768

ELEMENT = "Line.L14B"
MID830        1        65.3 +j   -372.0      377.7      -0.1729
MID830        2        61.7 +j   -336.9      342.5      -0.1802
MID830        3        59.9 +j   -331.6      337.0      -0.1778
   TERMINAL TOTAL .   186.9 +j  -1040.5     1057.2      -0.1768
830           1       -63.8 +j    369.5      374.9      -0.1701
830           2       -60.0 +j    334.8      340.1      -0.1763
830           3       -58.6 +j    329.7      334.8      -0.1749
   TERMINAL TOTAL .  -182.3 +j   1033.9     1049.8      -0.1736

ELEMENT = "Line.L15"
830           1        63.8 +j   -369.5      374.9      -0.1701
830           2        60.0 +j   -334.8      340.1      -0.1763
830           3        58.6 +j   -329.7      334.8      -0.1749
   TERMINAL TOTAL .   182.3 +j  -1033.9     1049.8      -0.1736
854           1       -63.7 +j    369.3      374.8      -0.1699
854           2       -59.9 +j    334.6      340.0      -0.1761
854           3       -58.5 +j    329.5      334.7      -0.1748
   TERMINAL TOTAL .  -182.1 +j   1033.5     1049.4      -0.1735

ELEMENT = "Line.L16A"
832           1        58.4 +j   -360.0      364.7      -0.1602
832           2        53.9 +j   -321.7      326.2      -0.1651
832           3        53.8 +j   -322.2      326.7      -0.1647
   TERMINAL TOTAL .   166.1 +j  -1003.9     1017.6      -0.1632
MID858        1       -58.2 +j    359.2      363.9      -0.1599
MID858        2       -53.5 +j    321.1      325.5      -0.1643
MID858        3       -53.6 +j    321.6      326.0      -0.1643
   TERMINAL TOTAL .  -165.2 +j   1001.9     1015.4      -0.1627

ELEMENT = "Line.L16B"
MID858        1        58.2 +j   -359.2      363.9      -0.1599
MID858        2        53.5 +j   -321.1      325.5      -0.1643
MID858        3        53.6 +j   -321.6      326.0      -0.1643
   TERMINAL TOTAL .   165.2 +j  -1001.9     1015.4      -0.1627
858           1       -57.9 +j    358.4      363.1      -0.1595
858           2       -53.1 +j    320.4      324.8      -0.1636
858           3       -53.3 +j    321.0      325.4      -0.1639
   TERMINAL TOTAL .  -164.4 +j    999.8     1013.2      -0.1622

ELEMENT = "Line.L29A"
858           1        57.9 +j   -358.0      362.6      -0.1597
858           2        53.1 +j   -320.4      324.8      -0.1636
858           3        53.3 +j   -321.0      325.4      -0.1639
   TERMINAL TOTAL .   164.4 +j   -999.4     1012.8      -0.1623
MID834        1       -57.6 +j    357.0      361.7      -0.1592
MID834        2       -52.7 +j    319.6      323.9      -0.1627
MID834        3       -53.0 +j    320.2      324.6      -0.1634
   TERMINAL TOTAL .  -163.3 +j    996.9     1010.2      -0.1617

ELEMENT = "Line.L29B"
MID834        1        57.6 +j   -357.0      361.7      -0.1592
MID834        2        52.7 +j   -319.6      323.9      -0.1627
MID834        3        53.0 +j   -320.2      324.6      -0.1634
   TERMINAL TOTAL .   163.3 +j   -996.9     1010.2      -0.1617
834           1       -57.3 +j    356.1      360.7      -0.1588
834           2       -52.3 +j    318.8      323.1      -0.1618
834           3       -52.7 +j    319.5      323.8      -0.1629
   TERMINAL TOTAL .  -162.3 +j    994.4     1007.6      -0.1611

ELEMENT = "Line.L18"
834           1        28.6 +j   -376.9      378.0      -0.0757
834           2        26.2 +j   -336.4      337.4      -0.0776
834           3        26.9 +j   -338.4      339.5      -0.0794
   TERMINAL TOTAL .    81.8 +j  -1051.7     1054.8      -0.0775
842           1       -28.6 +j    376.8      377.9      -0.0757
842           2       -26.1 +j    336.3      337.3      -0.0775
842           3       -26.9 +j    338.3      339.4      -0.0793
   TERMINAL TOTAL .   -81.6 +j   1051.4     1054.6      -0.0774

ELEMENT = "Line.L19A"
836           1        -0.0 +j     -0.3        0.3       0.0675
836           2         0.0 +j     -0.3        0.3      -0.1359
836           3        -0.0 +j     -0.3        0.3       0.0621
   TERMINAL TOTAL .     0.0 +j     -0.9        0.9      -0.0000
MID840        1         0.0 +j      0.2        0.2       0.0675
MID840        2        -0.0 +j      0.1        0.1      -0.1359
MID840        3         0.0 +j      0.1        0.1       0.0621
   TERMINAL TOTAL .    -0.0 +j      0.4        0.4      -0.0000

ELEMENT = "Line.L19B"
MID840        1        -0.0 +j     -0.2        0.2       0.0675
MID840        2         0.0 +j     -0.1        0.1      -0.1359
MID840        3        -0.0 +j     -0.1        0.1       0.0621
   TERMINAL TOTAL .     0.0 +j     -0.4        0.4      -0.0000
840           1        -0.0 +j      0.0        0.0      -0.8234
840           2        -0.0 +j      0.0        0.0      -0.9998
840           3         0.0 +j     -0.0        0.0      -0.4326
   TERMINAL TOTAL .    -0.0 +j      0.0        0.0      -0.9883

ELEMENT = "Line.L21A"
842           1        28.6 +j   -376.8      377.9      -0.0757
842           2        26.1 +j   -336.3      337.3      -0.0775
842           3        26.9 +j   -338.3      339.4      -0.0793
   TERMINAL TOTAL .    81.6 +j  -1051.4     1054.6      -0.0774
MID844        1       -28.5 +j    376.6      377.7      -0.0755
MID844        2       -26.0 +j    336.1      337.1      -0.0772
MID844        3       -26.8 +j    338.2      339.2      -0.0791
   TERMINAL TOTAL .   -81.4 +j   1050.9     1054.0      -0.0772

ELEMENT = "Line.L21B"
MID844        1        28.5 +j   -376.6      377.7      -0.0755
MID844        2        26.0 +j   -336.1      337.1      -0.0772
MID844        3        26.8 +j   -338.2      339.2      -0.0791
   TERMINAL TOTAL .    81.4 +j  -1050.9     1054.0      -0.0772
844           1       -28.4 +j    376.4      377.4      -0.0753
844           2       -25.9 +j    335.9      336.9      -0.0770
844           3       -26.8 +j    338.0      339.1      -0.0789
   TERMINAL TOTAL .   -81.1 +j   1050.3     1053.4      -0.0770

ELEMENT = "Line.L22A"
844           1        28.4 +j   -217.5      219.3      -0.1296
844           2        25.9 +j   -193.6      195.3      -0.1328
844           3        26.8 +j   -195.1      196.9      -0.1359
   TERMINAL TOTAL .    81.1 +j   -606.2      611.6      -0.1326
MID846        1       -28.4 +j    216.8      218.7      -0.1298
MID846        2       -25.8 +j    193.0      194.7      -0.1324
MID846        3       -26.7 +j    194.6      196.4      -0.1360
   TERMINAL TOTAL .   -80.9 +j    604.4      609.8      -0.1326

ELEMENT = "Line.L22B"
MID846        1        28.4 +j   -216.8      218.7      -0.1298
MID846        2        25.8 +j   -193.0      194.7      -0.1324
MID846        3        26.7 +j   -194.6      196.4      -0.1360
   TERMINAL TOTAL .    80.9 +j   -604.4      609.8      -0.1326
846           1       -28.3 +j    216.2      218.0      -0.1300
846           2       -25.6 +j    192.4      194.1      -0.1320
846           3       -26.7 +j    194.0      195.9      -0.1362
   TERMINAL TOTAL .   -80.6 +j    602.7      608.0      -0.1326

ELEMENT = "Line.L23A"
846           1        28.3 +j   -216.2      218.0      -0.1300
846           2        25.6 +j   -192.4      194.1      -0.1320
846           3        26.7 +j   -194.0      195.9      -0.1362
   TERMINAL TOTAL .    80.6 +j   -602.7      608.0      -0.1326
MID848        1       -28.3 +j    216.1      217.9      -0.1300
MID848        2       -25.6 +j    192.4      194.1      -0.1320
MID848        3       -26.7 +j    194.0      195.8      -0.1362
   TERMINAL TOTAL .   -80.6 +j    602.4      607.8      -0.1326

ELEMENT = "Line.L23B"
MID848        1        28.3 +j   -216.1      217.9      -0.1300
MID848        2        25.6 +j   -192.4      194.1      -0.1320
MID848        3        26.7 +j   -194.0      195.8      -0.1362
   TERMINAL TOTAL .    80.6 +j   -602.4      607.8      -0.1326
848           1       -28.3 +j    216.0      217.8      -0.1301
848           2       -25.6 +j    192.3      194.0      -0.1319
848           3       -26.7 +j    193.9      195.7      -0.1362
   TERMINAL TOTAL .   -80.6 +j    602.2      607.5      -0.1326

ELEMENT = "Line.L26A"
854           2         0.0 +j     -4.7        4.7      -0.0000
   TERMINAL TOTAL .     0.0 +j     -4.7        4.7      -0.0000
MID856        2        -0.0 +j      2.4        2.4      -0.0000
   TERMINAL TOTAL .    -0.0 +j      2.4        2.4      -0.0000

ELEMENT = "Line.L26B"
MID856        2         0.0 +j     -2.4        2.4      -0.0000
   TERMINAL TOTAL .     0.0 +j     -2.4        2.4      -0.0000
856           2         0.0 +j      0.0        0.0       0.9770
   TERMINAL TOTAL .     0.0 +j      0.0        0.0       0.9770

ELEMENT = "Line.L27"
854           1        63.7 +j   -369.3      374.8      -0.1699
854           2        59.9 +j   -329.9      335.3      -0.1786
854           3        58.5 +j   -329.5      334.7      -0.1748
   TERMINAL TOTAL .   182.1 +j  -1028.8     1044.8      -0.1743
852           1       -58.4 +j    360.1      364.8      -0.1602
852           2       -53.9 +j    321.8      326.3      -0.1651
852           3       -53.8 +j    322.3      326.7      -0.1647
   TERMINAL TOTAL .  -166.1 +j   1004.2     1017.9      -0.1632

ELEMENT = "Line.L25"
852R          1        58.4 +j   -360.1      364.8      -0.1602
852R          2        53.9 +j   -321.9      326.3      -0.1651
852R          3        53.8 +j   -322.3      326.7      -0.1647
   TERMINAL TOTAL .   166.1 +j  -1004.3     1017.9      -0.1632
832           1       -58.4 +j    360.1      364.8      -0.1602
832           2       -53.9 +j    321.9      326.3      -0.1651
832           3       -53.8 +j    322.3      326.7      -0.1647
   TERMINAL TOTAL .  -166.1 +j   1004.2     1017.9      -0.1632

ELEMENT = "Transformer.XFM1"
832           1        -0.0 +j     -0.1        0.1       0.0699
832           2         0.0 +j     -0.1        0.1      -0.1409
832           3        -0.0 +j     -0.0        0.0       0.0645
832           0         0.0 +j      0.0        0.0       1.0000
   TERMINAL TOTAL .     0.0 +j     -0.3        0.3      -0.0000
888           1         0.0 +j      0.1        0.1       0.0697
888           2        -0.0 +j      0.1        0.1      -0.1406
888           3         0.0 +j      0.0        0.0       0.0644
888           0         0.0 +j      0.0        0.0       1.0000
   TERMINAL TOTAL .    -0.0 +j      0.3        0.3      -0.0000

ELEMENT = "Line.L28A"
858           1         0.0 +j     -0.4        0.4      -0.0000
   TERMINAL TOTAL .     0.0 +j     -0.4        0.4      -0.0000
MID864        1        -0.0 +j      0.2        0.2      -0.0000
   TERMINAL TOTAL .    -0.0 +j      0.2        0.2      -0.0000

ELEMENT = "Line.L28B"
MID864        1         0.0 +j     -0.2        0.2      -0.0000
   TERMINAL TOTAL .     0.0 +j     -0.2        0.2      -0.0000
864           1        -0.0 +j      0.0        0.0      -0.6468
   TERMINAL TOTAL .    -0.0 +j      0.0        0.0      -0.6468

ELEMENT = "Line.L17A"
834           1        28.7 +j     20.8       35.4       0.8095
834           2        26.1 +j     17.5       31.4       0.8298
834           3        25.8 +j     18.9       32.0       0.8063
   TERMINAL TOTAL .    80.5 +j     57.2       98.8       0.8151
MID860        1       -28.7 +j    -21.2       35.6       0.8045
MID860        2       -26.0 +j    -17.9       31.6       0.8244
MID860        3       -25.8 +j    -19.2       32.2       0.8019
   TERMINAL TOTAL .   -80.5 +j    -58.3       99.4       0.8101

ELEMENT = "Line.L17B"
MID860        1        28.7 +j     21.2       35.6       0.8045
MID860        2        26.0 +j     17.9       31.6       0.8244
MID860        3        25.8 +j     19.2       32.2       0.8019
   TERMINAL TOTAL .    80.5 +j     58.3       99.4       0.8101
860           1       -28.7 +j    -21.6       35.9       0.7995
860           2       -26.0 +j    -18.2       31.7       0.8190
860           3       -25.8 +j    -19.5       32.4       0.7975
   TERMINAL TOTAL .   -80.5 +j    -59.3      100.0       0.8051

ELEMENT = "Line.L30A"
860           1        -0.1 +j     -1.5        1.5       0.0675
860           2         0.2 +j     -2.4        2.5      -0.0708
860           3        -0.0 +j     -1.2        1.2       0.0621
   TERMINAL TOTAL .     0.0 +j     -5.1        5.1      -0.0000
MID836        1         0.0 +j      1.0        1.0       0.0675
MID836        2        -0.1 +j      2.0        2.0      -0.0562
MID836        3         0.0 +j      0.8        0.8       0.0621
   TERMINAL TOTAL .    -0.0 +j      3.7        3.7      -0.0000

ELEMENT = "Line.L30B"
MID836        1        -0.0 +j     -1.0        1.0       0.0675
MID836        2         0.1 +j     -2.0        2.0      -0.0562
MID836        3        -0.0 +j     -0.8        0.8       0.0621
   TERMINAL TOTAL .     0.0 +j     -3.7        3.7      -0.0000
836           1         0.0 +j      0.4        0.4       0.0675
836           2        -0.0 +j      1.6        1.6      -0.0332
836           3         0.0 +j      0.4        0.4       0.0621
   TERMINAL TOTAL .    -0.0 +j      2.4        2.4      -0.0000

ELEMENT = "Line.L20"
836           1        -0.0 +j     -0.1        0.1       0.0675
836           2         0.0 +j     -1.3        1.3      -0.0100
836           3        -0.0 +j     -0.0        0.0       0.0621
   TERMINAL TOTAL .     0.0 +j     -1.5        1.5      -0.0000
862           1        -0.0 +j     -0.0        0.0       0.1550
862           2        -0.0 +j      1.2        1.2      -0.0000
862           3         0.0 +j      0.0        0.0       0.8410
   TERMINAL TOTAL .    -0.0 +j      1.2        1.2      -0.0000

ELEMENT = "Line.L31A"
862           2         0.0 +j     -1.2        1.2      -0.0000
   TERMINAL TOTAL .     0.0 +j     -1.2        1.2      -0.0000
MID838        2        -0.0 +j      0.6        0.6      -0.0000
   TERMINAL TOTAL .    -0.0 +j      0.6        0.6      -0.0000

ELEMENT = "Line.L31B"
MID838        2         0.0 +j     -0.6        0.6      -0.0000
   TERMINAL TOTAL .     0.0 +j     -0.6        0.6      -0.0000
838           2        -0.0 +j     -0.0        0.0       0.8687
   TERMINAL TOTAL .    -0.0 +j     -0.0        0.0       0.8687

ELEMENT = "Line.L32"
888           1        -0.0 +j     -0.1        0.1       0.0697
888           2         0.0 +j     -0.1        0.1      -0.1406
888           3        -0.0 +j     -0.0        0.0       0.0644
   TERMINAL TOTAL .     0.0 +j     -0.3        0.3      -0.0000
890           1         0.0 +j      0.0        0.0       0.1788
890           2         0.0 +j     -0.0        0.0      -0.6748
890           3        -0.0 +j      0.0        0.0      -0.4363
   TERMINAL TOTAL .     0.0 +j      0.0        0.0       0.0635

ELEMENT = "Capacitor.C844"
844           1         0.0 +j   -158.9      158.9       1.0000
844           2        -0.0 +j   -142.3      142.3       0.0000
844           3        -0.0 +j   -142.9      142.9       0.0000
   TERMINAL TOTAL .    -0.0 +j   -444.1      444.1       0.0000
844           0         0.0 +j      0.0        0.0       1.0000
844           0         0.0 +j      0.0        0.0       1.0000
844           0         0.0 +j      0.0        0.0       1.0000
   TERMINAL TOTAL .     0.0 +j      0.0        0.0       1.0000

ELEMENT = "Capacitor.C848"
848           1         0.0 +j   -238.5      238.5       1.0000
848           2         0.0 +j   -213.6      213.6       1.0000
848           3         0.0 +j   -214.5      214.5       1.0000
   TERMINAL TOTAL .     0.0 +j   -666.6      666.6       1.0000
848           0         0.0 +j      0.0        0.0       1.0000
848           0         0.0 +j      0.0        0.0       1.0000
848           0         0.0 +j      0.0        0.0       1.0000
   TERMINAL TOTAL .     0.0 +j      0.0        0.0       1.0000

ELEMENT = "Transformer.REG1A"
814           1        68.7 +j   -391.2      397.2      -0.1729
814           0         0.0 +j      0.0        0.0       1.0000
   TERMINAL TOTAL .    68.7 +j   -391.2      397.2      -0.1729
814R          1       -68.7 +j    391.2      397.2      -0.1729
814R          0         0.0 +j      0.0        0.0       1.0000
   TERMINAL TOTAL .   -68.7 +j    391.2      397.2      -0.1729

ELEMENT = "Transformer.REG1B"
814           2        65.5 +j   -342.0      348.2      -0.1881
814           0         0.0 +j      0.0        0.0       1.0000
   TERMINAL TOTAL .    65.5 +j   -342.0      348.2      -0.1881
814R          2       -65.5 +j    342.0      348.2      -0.1881
814R          0         0.0 +j      0.0        0.0       1.0000
   TERMINAL TOTAL .   -65.5 +j    342.0      348.2      -0.1881

ELEMENT = "Transformer.REG1C"
814           3        62.8 +j   -335.7      341.6      -0.1840
814           0         0.0 +j      0.0        0.0       1.0000
   TERMINAL TOTAL .    62.8 +j   -335.7      341.6      -0.1840
814R          3       -62.8 +j    335.7      341.6      -0.1840
814R          0         0.0 +j      0.0        0.0       1.0000
   TERMINAL TOTAL .   -62.8 +j    335.7      341.6      -0.1840

ELEMENT = "Transformer.REG2A"
852           1        58.4 +j   -360.1      364.8      -0.1602
852           0         0.0 +j      0.0        0.0       1.0000
   TERMINAL TOTAL .    58.4 +j   -360.1      364.8      -0.1602
852R          1       -58.4 +j    360.1      364.8      -0.1602
852R          0         0.0 +j      0.0        0.0       1.0000
   TERMINAL TOTAL .   -58.4 +j    360.1      364.8      -0.1602

ELEMENT = "Transformer.REG2B"
852           2        53.9 +j   -321.8      326.3      -0.1651
852           0         0.0 +j      0.0        0.0       1.0000
   TERMINAL TOTAL .    53.9 +j   -321.8      326.3      -0.1651
852R          2       -53.9 +j    321.9      326.3      -0.1651
852R          0         0.0 +j      0.0        0.0       1.0000
   TERMINAL TOTAL .   -53.9 +j    321.9      326.3      -0.1651

ELEMENT = "Transformer.REG2C"
852           3        53.8 +j   -322.3      326.7      -0.1647
852           0         0.0 +j      0.0        0.0       1.0000
   TERMINAL TOTAL .    53.8 +j   -322.3      326.7      -0.1647
852R          3       -53.8 +j    322.3      326.7      -0.1647
852R          0         0.0 +j      0.0        0.0       1.0000
   TERMINAL TOTAL .   -53.8 +j    322.3      326.7      -0.1647

= = = = = = = = = = = = = = = = = = =  = = = = = = = = = = =  = =

Power Conversion Elements

  Bus     Phase     kW   +j  kvar         kVA         PF

ELEMENT = "Load.S860"
860           1      28.8 +j   23.0       36.9       0.7809
860           2      25.8 +j   20.6       33.0       0.7809
860           3      25.9 +j   20.7       33.2       0.7809
860           0       0.0 +j    0.0        0.0       1.0000
   TERMINAL TOTAL .  80.5 +j   64.4      103.1       0.7809

ELEMENT = "Load.S848"
848           1      28.3 +j   22.5       36.2       0.7832
848           2      25.6 +j   21.4       33.3       0.7677
848           3      26.7 +j   20.6       33.7       0.7911
   TERMINAL TOTAL .  80.6 +j   64.5      103.2       0.7809


Total Circuit Losses =   75.7 +j -142.9
