test_data/ep/opendss/34Bus/debug/ieee34-2_VLN_Node.Txt

NODE-GROUND VOLTAGES BY BUS & NODE

Bus       Node    V (kV)    Angle      p.u.   Base kV

SOURCEBUS 1       41.829 /_   30.0      1.05    69.000
   -      2       41.829 /_  -90.0      1.05    69.000
   -      3       41.829 /_  150.0      1.05    69.000
800 ..... 1       15.095 /_    0.0      1.05    24.900
   -      2       15.095 /_ -120.0      1.05    24.900
   -      3       15.095 /_  120.0      1.05    24.900
802 ..... 1       15.103 /_   -0.1    1.0506    24.900
   -      2       15.102 /_ -120.0    1.0505    24.900
   -      3       15.101 /_  119.9    1.0504    24.900
MID806 .. 1       15.106 /_   -0.1    1.0508    24.900
   -      2       15.105 /_ -120.1    1.0507    24.900
   -      3       15.103 /_  119.9    1.0506    24.900
806 ..... 1       15.108 /_   -0.1    1.0509    24.900
   -      2       15.107 /_ -120.1    1.0509    24.900
   -      3       15.105 /_  119.9    1.0507    24.900
808 ..... 1       15.209 /_   -1.0     1.058    24.900
   -      2       15.199 /_ -120.7    1.0572    24.900
   -      3       15.183 /_  119.2    1.0562    24.900
MID810 .. 2       15.199 /_ -120.7    1.0572    24.900
810 ..... 2       15.199 /_ -120.7    1.0572    24.900
812 ..... 1       15.327 /_   -1.9    1.0661    24.900
   -      2       15.303 /_ -121.4    1.0645    24.900
   -      3       15.273 /_  118.4    1.0624    24.900
814 ..... 1        15.42 /_   -2.7    1.0726    24.900
   -      2       15.386 /_ -121.9    1.0702    24.900
   -      3       15.343 /_  117.7    1.0673    24.900
814R .... 1       16.577 /_   -2.7    1.1531    24.900
   -      2       15.867 /_ -121.9    1.1037    24.900
   -      3       15.823 /_  117.7    1.1007    24.900
850 ..... 1       16.577 /_   -2.7    1.1531    24.900
   -      2       15.867 /_ -121.9    1.1037    24.900
   -      3       15.823 /_  117.7    1.1007    24.900
816 ..... 1       16.578 /_   -2.7    1.1531    24.900
   -      2       15.868 /_ -121.9    1.1038    24.900
   -      3       15.824 /_  117.7    1.1007    24.900
818 ..... 1       16.578 /_   -2.7    1.1532    24.900
MID824 .. 1       16.589 /_   -2.8    1.1539    24.900
   -      2       15.879 /_ -122.0    1.1046    24.900
   -      3       15.834 /_  117.6    1.1014    24.900
824 ..... 1         16.6 /_   -3.0    1.1547    24.900
   -      2       15.891 /_ -122.1    1.1054    24.900
   -      3       15.844 /_  117.4    1.1021    24.900
MID820 .. 1       16.582 /_   -2.7    1.1535    24.900
820 ..... 1       16.585 /_   -2.7    1.1536    24.900
MID822 .. 1       16.585 /_   -2.7    1.1537    24.900
822 ..... 1       16.585 /_   -2.7    1.1537    24.900
MID826 .. 2       15.891 /_ -122.1    1.1054    24.900
826 ..... 2       15.891 /_ -122.1    1.1054    24.900
MID828 .. 1       16.601 /_   -3.0    1.1548    24.900
   -      2       15.892 /_ -122.1    1.1054    24.900
   -      3       15.845 /_  117.4    1.1022    24.900
828 ..... 1       16.602 /_   -3.0    1.1549    24.900
   -      2       15.893 /_ -122.2    1.1055    24.900
   -      3       15.846 /_  117.4    1.1023    24.900
MID830 .. 1       16.625 /_   -3.3    1.1565    24.900
   -      2       15.916 /_ -122.4    1.1071    24.900
   -      3       15.867 /_  117.1    1.1037    24.900
830 ..... 1       16.648 /_   -3.6     1.158    24.900
   -      2       15.939 /_ -122.7    1.1087    24.900
   -      3       15.888 /_  116.9    1.1051    24.900
854 ..... 1       16.649 /_   -3.6    1.1581    24.900
   -      2       15.941 /_ -122.7    1.1088    24.900
   -      3       15.889 /_  116.8    1.1052    24.900
832 ..... 1       18.093 /_   -4.6    1.2586    24.900
   -      2       17.124 /_ -123.5    1.1912    24.900
   -      3       17.162 /_  115.9    1.1938    24.900
MID858 .. 1       18.098 /_   -4.6    1.2589    24.900
   -      2       17.129 /_ -123.6    1.1915    24.900
   -      3       17.166 /_  115.8    1.1941    24.900
858 ..... 1       18.104 /_   -4.7    1.2593    24.900
   -      2       17.134 /_ -123.6    1.1919    24.900
   -      3       17.171 /_  115.8    1.1944    24.900
MID834 .. 1        18.11 /_   -4.8    1.2597    24.900
   -      2       17.141 /_ -123.7    1.1923    24.900
   -      3       17.177 /_  115.7    1.1948    24.900
834 ..... 1       18.116 /_   -4.8    1.2601    24.900
   -      2       17.147 /_ -123.7    1.1927    24.900
   -      3       17.182 /_  115.6    1.1952    24.900
842 ..... 1       18.117 /_   -4.8    1.2602    24.900
   -      2       17.147 /_ -123.7    1.1928    24.900
   -      3       17.183 /_  115.6    1.1952    24.900
836 ..... 1       18.114 /_   -4.8      1.26    24.900
   -      2       17.146 /_ -123.7    1.1926    24.900
   -      3       17.181 /_  115.6    1.1951    24.900
MID840 .. 1       18.114 /_   -4.8      1.26    24.900
   -      2       17.146 /_ -123.7    1.1927    24.900
   -      3       17.181 /_  115.6    1.1951    24.900
840 ..... 1       18.114 /_   -4.8      1.26    24.900
   -      2       17.146 /_ -123.7    1.1927    24.900
   -      3       17.181 /_  115.6    1.1951    24.900
MID844 .. 1       18.118 /_   -4.9    1.2603    24.900
   -      2       17.149 /_ -123.8    1.1929    24.900
   -      3       17.185 /_  115.6    1.1954    24.900
844 ..... 1        18.12 /_   -4.9    1.2605    24.900
   -      2       17.151 /_ -123.8     1.193    24.900
   -      3       17.186 /_  115.6    1.1955    24.900
MID846 .. 1       18.123 /_   -4.9    1.2606    24.900
   -      2       17.154 /_ -123.8    1.1932    24.900
   -      3       17.189 /_  115.6    1.1957    24.900
846 ..... 1       18.125 /_   -4.9    1.2608    24.900
   -      2       17.156 /_ -123.8    1.1934    24.900
   -      3       17.191 /_  115.5    1.1958    24.900
MID848 .. 1       18.126 /_   -4.9    1.2608    24.900
   -      2       17.156 /_ -123.8    1.1934    24.900
   -      3       17.191 /_  115.5    1.1958    24.900
848 ..... 1       18.126 /_   -4.9    1.2609    24.900
   -      2       17.157 /_ -123.8    1.1934    24.900
   -      3       17.192 /_  115.5    1.1959    24.900
MID856 .. 2       15.941 /_ -122.7    1.1089    24.900
856 ..... 2       15.942 /_ -122.7    1.1089    24.900
852 ..... 1       16.734 /_   -4.6     1.164    24.900
   -      2       16.022 /_ -123.5    1.1145    24.900
   -      3       15.964 /_  115.9    1.1105    24.900
852R .... 1       18.093 /_   -4.6    1.2586    24.900
   -      2       17.124 /_ -123.5    1.1912    24.900
   -      3       17.162 /_  115.9    1.1938    24.900
888 ..... 1       3.0229 /_   -4.6    1.2586     4.160
   -      2        2.861 /_ -123.5    1.1912     4.160
   -      3       2.8672 /_  115.9    1.1938     4.160
MID864 .. 1       18.104 /_   -4.7    1.2593    24.900
864 ..... 1       18.104 /_   -4.7    1.2593    24.900
MID860 .. 1       18.115 /_   -4.8    1.2601    24.900
   -      2       17.146 /_ -123.7    1.1927    24.900
   -      3       17.182 /_  115.6    1.1952    24.900
860 ..... 1       18.114 /_   -4.8      1.26    24.900
   -      2       17.145 /_ -123.7    1.1926    24.900
   -      3       17.181 /_  115.6    1.1951    24.900
MID836 .. 1       18.114 /_   -4.8      1.26    24.900
   -      2       17.146 /_ -123.7    1.1926    24.900
   -      3       17.181 /_  115.6    1.1951    24.900
862 ..... 1       18.114 /_   -4.8      1.26    24.900
   -      2       17.146 /_ -123.7    1.1927    24.900
   -      3       17.181 /_  115.6    1.1951    24.900
MID838 .. 2       17.146 /_ -123.7    1.1927    24.900
838 ..... 2       17.146 /_ -123.7    1.1927    24.900
890 ..... 1       3.0229 /_   -4.6    1.2586     4.160
   -      2        2.861 /_ -123.5    1.1912     4.160
   -      3       2.8672 /_  115.9    1.1938     4.160
